! SP wB97X-d3 RIJCOSX def2-tzvp def2/J def2-tzvp/C TightSCF
%pal nprocs 22 end 
%maxcore 3000
%scf Guess Hueckel end

* xyz 0 1
   I       -0.83900       -1.81900       10.00000
   O        1.68900        1.98200        9.95600
   C        0.90800        1.06100        9.81500
   H        0.52500        0.67400       10.59400
   C        0.51900        0.51400        8.50100
   C       -0.21800       -0.66600        8.35000
   C       -0.54800       -1.13100        7.09100
   H       -1.03500       -1.94000        6.99600
   C       -0.17000       -0.42200        5.97100
   H       -0.40100       -0.74500        5.10900
   C        0.53900        0.75300        6.09300
   H        0.77900        1.24800        5.31800
   C        0.90400        1.20800        7.35300
   H        1.42000        2.00100        7.43600
   I:       1.22200       -3.92800        4.83100
   O:       3.75000       -7.72900        4.87500
   C:       2.96800       -6.80800        5.01600
   H:       2.58600       -6.42100        4.23700
   C:       2.58000       -6.26100        6.33000
   C:       1.84300       -5.08200        6.48100
   C:       1.51300       -4.61600        7.74000
   H:       1.02500       -3.80700        7.83500
   C:       1.89000       -5.32600        8.86000
   H:       1.66000       -5.00300        9.72200
   C:       2.60000       -6.50000        8.73800
   H:       2.84000       -6.99600        9.51300
   C:       2.96400       -6.95600        7.47800
   H:       3.48100       -7.74900        7.39500
*
